/batch
/config,noeldb,1     ! force off writing results to database
*get,_wallstrt,active,,time,wall
! ANSYS input file written by Workbench version 2025 R1
! File used for geometry attach: D:\robotics\Projects\ANSYS\Shaft Analysis\Shaft.STEP
/title,wbnew--Static Structural (A5)
! ****** Begin Custom Load Command Snippet ******
/COM, ACT Extensions:
/COM,     LSDYNA, 2025.1
/COM,     5f463412-bd3e-484b-87e7-cbc0a665e474, wbex
/COM,/COM,     ANSYSMotion, 2025.1
/COM,     20180725-3f81-49eb-9f31-41364844c769, wbex
/COM,
! ****** End   Custom Load Command Snippet ******
*DIM,_wb_ProjectScratch_dir,string,248
_wb_ProjectScratch_dir(1) = 'D:\ANSYS Inc\WB_ankit_7184_2\_ProjectScratch\ScrF678\'
*DIM,_wb_SolverFiles_dir,string,248
_wb_SolverFiles_dir(1) = 'D:\ANSYS Inc\WB_ankit_7184_2\wbnew_files\dp0\SYS\MECH\'
*DIM,_wb_userfiles_dir,string,248
_wb_userfiles_dir(1) = 'D:\ANSYS Inc\WB_ankit_7184_2\wbnew_files\user_files\'
/com,--- Data in consistent NMM units. See Solving Units in the help system for more information.
/units,MPA
/nopr
/wb,file,start              !  signify a WB generated input file
/prep7
! Turn off shape checking because checks already performed inside WB mesher.
! See help system for more information.
SHPP,OFF,,NOWARN
/nolist
etcon,set             ! allow ANSYS to choose best KEYOP's for 180x elements, resets any applicable keyopt to MAPDL defaults
/com,*********** Nodes for the whole assembly ***********
nblock,3,,5594
(1i9,3e20.9e3)
        1     2.875000000E+01     5.388445916E-16    -4.400000000E+00
        2     2.875000000E+01     0.000000000E+00     4.400000000E+00
        3     2.875000000E+01    -3.810511777E+00    -2.200000000E+00
        4     2.875000000E+01    -3.810511777E+00     2.200000000E+00
        5     1.102182119E-16     5.388445916E-16    -4.400000000E+00
        6     1.916666667E+01     5.388445916E-16    -4.400000000E+00
        7     9.583333333E+00     5.388445916E-16    -4.400000000E+00
        8     1.102182119E-16     0.000000000E+00     4.400000000E+00
        9     1.102182119E-16    -3.810511777E+00    -2.200000000E+00
       10     1.102182119E-16    -3.810511777E+00     2.200000000E+00
       11     1.916666667E+01     0.000000000E+00     4.400000000E+00
       12     9.583333333E+00     0.000000000E+00     4.400000000E+00
       13     3.139378672E+01    -7.689260085E-15     0.000000000E+00
       14     1.970000000E+02     4.286263797E-16     3.500000000E+00
       15     1.970000000E+02     0.000000000E+00    -3.500000000E+00
       16     1.970000000E+02    -3.031088913E+00     1.750000000E+00
       17     1.970000000E+02    -3.031088913E+00    -1.750000000E+00
       18     2.250000000E+02     4.286263797E-16     3.500000000E+00
       19     2.063333333E+02     4.286263797E-16     3.500000000E+00
       20     2.156666667E+02     4.286263797E-16     3.500000000E+00
! ... 5067 like lines cut
/wb,elem,start            !  set before creation of elements
/com,*********** Elements for Body 1 '_rnek246|M10x1.25 Di_li Delik1' ***********
et,1,187
eblock,19,solid,,2822
(19i9)
        1        1        1        1        0        0        0        0       10        0        1       66      201      504      822     1289     2165     1290     1293
     2167     3754
        1        1        1        1        0        0        0        0       10        0        2       66      705      822      814     1291     4826     1293     1292
     4825     5086
        1        1        1        1        0        0        0        0       10        0        3      201      339      822      705     2164     3009     2167     2166
     3008     4826
        1        1        1        1        0        0        0        0       10        0        4      201      504      822      339     2165     3754     2167     2164
     3005     3009
        1        1        1        1        0        0        0        0       10        0        5      312      822      525      705     2851     3835     2848     2849
     4826     3834
        1        1        1        1        0        0        0        0       10        0        6      339      525      822      705     3006     3835     3009     3008
     3834     4826
        1        1        1        1        0        0        0        0       10        0        7      537      821      538      788     3902     3907     3894     3901
     5069     3906
        1        1        1        1        0        0        0        0       10        0        8      537      672      821      788     3896     4630     3902     3901
     4628     5069
        1        1        1        1        0        0        0        0       10        0        9      462      538      537      821     3568     3894     3567     3571
     3907     3902
        1        1        1        1        0        0        0        0       10        0       10      300      538      462      821     2773     3568     2771     2778
     3907     3571
! ... 5625 like lines cut
! Material Id = {4FFE1E0E-6B19-4534-AC94-097A9BA5A549}
/wb,elem,end               !  done creating elements
/com,*********** Send User Defined Coordinate System(s) ***********
csys,0
toffst,273.15,      ! Temperature offset from absolute zero
/com,*********** Set Reference Temperature ***********
tref,22.
/wb,mat,start              !  starting to send materials
/com,*********** Send Materials ***********
Temperature = 'TEMP' ! Temperature
MP,DENS,1,7.85e-09,	! tonne mm^-3
MP,ALPX,1,1.2e-05,	! C^-1
MP,C,1,434000000,	! mm^2 s^-2 C^-1
MP,KXX,1,60.5,	! tonne mm s^-3 C^-1
MP,RSVX,1,0.00017,	! ohm mm
MP,EX,1,200000,	! tonne s^-2 mm^-1
MP,NUXY,1,0.3,
MP,MURX,1,10000,
MP,UVID,1,afeafbff-9f23-43a3-adad-638e88daacfc
MP,UMID,1,59002a79-71c2-428e-906b-55d7dbee100e

/wb,mat,end                !  done sending materials
!************************* Model Summary ********************
!rnek246|M10x1.25 Dili Delik1,	Structural Steel,	matid,	1
!************************* End Model Summary ********************
! get the diagonal of the bounding box. Needed later for other things
*get,_xmin,node,,mnloc,x
*get,_ymin,node,,mnloc,y
*get,_zmin,node,,mnloc,z
*get,_xmax,node,,mxloc,x
*get,_ymax,node,,mxloc,y
*get,_zmax,node,,mxloc,z
_ASMDIAG=(_xmax-_xmin)*(_xmax-_xmin)+(_ymax-_ymin)*(_ymax-_ymin)+(_zmax-_zmin)*(_zmax-_zmin)
_ASMDIAG=SQRT(_ASMDIAG)
/wb,contact,start          !  starting to send contact
/wb,contact,end            !  done creating contacts
/golist
/wb,load,start             !  starting to send loads
/com,*********** Fixed Supports ***********
CMBLOCK,_FIXEDSU,NODE,       48
(8i10)
         5         8         9        10        27        28        29        30
        31        32       239       240       241       242       243       244
       864       865       866       867       868       894       896       897
       898       899       902       903       904       909       910       911
      1062      1065      1069      1072      1076      1079      1081      1084
      1085      1088      1091      1096      2456      2464      2468      2473

cmsel,s,_FIXEDSU
d,all,all
nsel,all
/com,*********** Define Force Using Surface Effect Elements ***********
local,12,0,0.,0.,0.,0.,0.,0.
csys,0
et,2,154
eblock,10,,,14
(15i9)
     4061        2        2        2       12       18      313       61       61      992     1265       61      990
     4062        2        2        2       12       60      313      312      312     1261     2847      312     1260
     4063        2        2        2       12       59       60      312      312     1251     1260      312     1254
     4064        2        2        2       12       60       61      313      313     1257     1265      313     1261
     4065        2        2        2       12       21      316       57       57     1019     1242       57     1016
     4066        2        2        2       12       21       57       59       59     1016     1238       59     1017
     4067        2        2        2       12       18       61       58       58      990     1245       58      989
     4068        2        2        2       12       21       59      312      312     1017     1254      312     1018
     4069        2        2        2       12       21       23      316      316     1014     1030      316     1019
     4070        2        2        2       12       22      314      315      315     1025     2856      315     1026
     4071        2        2        2       12       18       58      314      314      989     1249      314      993
     4072        2        2        2       12       18      314       22       22      993     1025       22      988
     4073        2        2        2       12       22      315       23       23     1026     1029       23     1022
     4074        2        2        2       12       23      315      316      316     1029     2857      316     1030
-1
esel,s,type,,2
keyop,2,2,1         ! Apply load in local coordinate system
keyop,2,7,1         ! Use original area so load is constant in large deformation
esel,all
/gst,on,on
fini
*get,_numnode,node,0,count
*get,_numelem,elem,0,count
*get, _MAXELEMNUM, elem, 0, NUM, MAX
*get, _MAXNODENUM, node, 0, NUM, MAX
*get, _MAXELEMTYPE, etyp, 0, NUM, MAX
*get, _MAXREALCONST, rcon, 0, NUM, MAX
/go
/wb,load,end               !  done creating loads
/com,--- Number of total nodes = %_numnode%
/com,--- Number of contact elements = 14
/com,--- Number of spring elements = 0
/com,--- Number of bearing elements = 0
/com,--- Number of solid elements = 2822
/com,--- Number of condensed parts = 0
/com,--- Number of total elements = %_numelem%
*get,_wallbsol,active,,time,wall
/com,****************************************************************************
/com,*************************    SOLUTION       ********************************
/com,****************************************************************************
/solu
antype,0                   ! static analysis
_thickRatio=  1     ! Ratio of thick parts in the model
eqsl,pcg,1e-8,,,,,,1
cntr,print,1               ! print out contact info and also make no initial contact an error
cncheck,dmp		!	Enable program controlled contact splitting for distributed memory parallel run
dmpoption,emat,no             ! Don't combine emat file for DANSYS
dmpoption,esav,no             ! Don't combine esav file for DANSYS
nldiag,cont,iter           ! print out contact info each equilibrium iteration
rescontrol,,none                 ! Do not keep any restart files
/com,****************************************************
/com,******************* SOLVE FOR LS 1 OF 1 ****************
esel,s,type,,2
nsle
sfe,all,1,pres,1,0.
sfe,all,2,pres,1,-4.87488080830641
sfe,all,3,pres,1,0.
nsel,all
esel,all
/nopr
/gopr
nsub,1,1,1
time,1.
outres,erase
outres,all,none
outres,nsol,all,
outres,rsol,all
outres,eangl,all
outres,etmp,all
outres,veng,all
outres,strs,all,
outres,epel,all,
outres,eppl,all,
outres,cont,all,
! *********** WB SOLVE COMMAND ***********
! check interactive state
*get,ANSINTER_,active,,int
*if,ANSINTER_,ne,0,then
/eof
*endif
solve
/com *************** Write FE CONNECTORS ********* 
CEWRITE,file,ce,,INTE
/com,****************************************************
/com,*************** FINISHED SOLVE FOR LS 1 *************
*get,_wallasol,active,,time,wall
/nopr
*get,_numnode,node,0,count
*get,_numelem,elem,0,count
*get, _MAXELEMNUM, elem, 0, NUM, MAX
*get, _MAXNODENUM, node, 0, NUM, MAX,,,INTERNAL
*get, _MAXELEMTYPE, etyp, 0, NUM, MAX
*get, _MAXREALCONST, rcon, 0, NUM, MAX
*get,_NSOLTHREADS,active,0,ntfs
*get,_NSOLPROCESSES,active,0,npfs
/gopr
*get,_PCGITER,active,,solu,cgiter
/post1
xmlo,ENCODING,ISO-8859-1
xmlo,parm
/xml,parm,xml
fini
/gopr
*get,_walldone,active,,time,wall
_preptime=(_wallbsol-_wallstrt)*3600
_solvtime=(_wallasol-_wallbsol)*3600
_posttime=(_walldone-_wallasol)*3600
_totaltim=(_walldone-_wallstrt)*3600
*get,_dlbratio,active,0,solu,dlbr
*get,_combtime,active,0,solu,comb
*get,_ssmode,active,0,solu,ssmm
*get,_ndofs,active,0,solu,ndof
*get,_sol_end_time,active,0,set,time
*if,_sol_end_time,eq,1.000000,then
/fclean				!clean distributed files
*endif
/com,--- Total number of nodes = %_numnode%
/com,--- Total number of elements = %_numelem%
/com,--- Element load balance ratio = %_dlbratio%
/com,--- Time to combine distributed files = %_combtime%
/com,--- Sparse memory mode = %_ssmode%
/com,--- Number of DOF = %_ndofs%
/wb,file,end               ! done with WB generated input
